<?xml version="1.0" encoding="UTF-8"?>

<!-- generated on 2024-06-16 22:34:10.744835 by randomTrips.py UNKNOWN
<configuration>
    <net-file value="red.sumo.xml"/>
    <output-trip-file value="demanda.trips.xml"/>
    <period value="2.49"/>
</configuration>
-->

<routes xmlns:xsi="http://www.w3.org/2001/XMLSchema-instance" xsi:noNamespaceSchemaLocation="http://sumo.dlr.de/xsd/routes_file.xsd">
    <trip id="0" depart="0.00" from="437157172#0" to="-43405584#2"/>
    <trip id="1" depart="2.49" from="136124311#3" to="133150561#3"/>
    <trip id="2" depart="4.98" from="44336478#0" to="437157173#0"/>
    <trip id="3" depart="7.47" from="656511223#0" to="106343219#1"/>
    <trip id="4" depart="9.96" from="43405582#3" to="-43405584#2"/>
    <trip id="5" depart="12.45" from="133150561#1" to="43405584#2"/>
    <trip id="6" depart="14.94" from="-43405584#2" to="133150561#1"/>
    <trip id="7" depart="17.43" from="437157172#1" to="436766213#1"/>
    <trip id="8" depart="19.92" from="133150561#2" to="437157170#1"/>
    <trip id="9" depart="22.41" from="44336478#7" to="-43405584#0"/>
    <trip id="10" depart="24.90" from="44336478#7" to="437157175#0"/>
    <trip id="11" depart="27.39" from="164369271#1" to="107088310#4"/>
    <trip id="12" depart="29.88" from="6601764#0" to="164369277#1"/>
    <trip id="13" depart="32.37" from="106343219#0" to="106343219#2"/>
    <trip id="14" depart="34.86" from="554230311#1" to="437157171#0"/>
    <trip id="15" depart="37.35" from="44336478#7" to="44336478#1"/>
    <trip id="16" depart="39.84" from="436766213#0" to="7971510#0"/>
    <trip id="17" depart="42.33" from="164369277#3" to="436766213#1"/>
    <trip id="18" depart="44.82" from="4638449#1" to="437157171#2"/>
    <trip id="19" depart="47.31" from="554230311#2" to="437157170#0"/>
    <trip id="20" depart="49.80" from="437157174#1" to="-43405585#0"/>
    <trip id="21" depart="52.29" from="133150561#2" to="14567301#1"/>
    <trip id="22" depart="54.78" from="-657562143" to="133150561#4"/>
    <trip id="23" depart="57.27" from="106343219#1" to="136124311#4"/>
    <trip id="24" depart="59.76" from="437157172#0" to="43405582#0"/>
    <trip id="25" depart="62.25" from="164369277#2" to="133150561#2"/>
    <trip id="26" depart="64.74" from="136124311#2" to="657562143"/>
    <trip id="27" depart="67.23" from="437157172#1" to="437157171#1"/>
    <trip id="28" depart="69.72" from="107088310#5" to="437157175#2"/>
    <trip id="29" depart="72.21" from="107088310#4" to="43405582#1"/>
    <trip id="30" depart="74.70" from="7971510#0" to="437157172#1"/>
    <trip id="31" depart="77.19" from="436766214#0" to="437157173#1"/>
    <trip id="32" depart="79.68" from="554230311#0" to="44336478#5"/>
    <trip id="33" depart="82.17" from="133150561#2" to="-43405584#3"/>
    <trip id="34" depart="84.66" from="14567301#3" to="136124311#3"/>
    <trip id="35" depart="87.15" from="133150561#1" to="6601764#0"/>
    <trip id="36" depart="89.64" from="554230311#4" to="164369271#1"/>
    <trip id="37" depart="92.13" from="437157172#1" to="43405582#2"/>
    <trip id="38" depart="94.62" from="657562133" to="43405583#2"/>
    <trip id="39" depart="97.11" from="136124311#2" to="136124311#1"/>
    <trip id="40" depart="99.60" from="436766214#0" to="136124311#3"/>
    <trip id="41" depart="102.09" from="437157170#0" to="657562135#1"/>
    <trip id="42" depart="104.58" from="43405582#1" to="133150561#3"/>
    <trip id="43" depart="107.07" from="93601149" to="43405584#2"/>
    <trip id="44" depart="109.56" from="106343219#0" to="-43405585#0"/>
    <trip id="45" depart="112.05" from="106343219#2" to="437157172#0"/>
    <trip id="46" depart="114.54" from="44336478#6" to="43405582#5"/>
    <trip id="47" depart="117.03" from="-657562133" to="43405582#1"/>
    <trip id="48" depart="119.52" from="93601149" to="43405585#0"/>
    <trip id="49" depart="122.01" from="6601764#2" to="554230311#4"/>
    <trip id="50" depart="124.50" from="-43405584#1" to="437157175#2"/>
    <trip id="51" depart="126.99" from="437157173#0" to="43405585#1"/>
    <trip id="52" depart="129.48" from="136124311#2" to="437157172#1"/>
    <trip id="53" depart="131.97" from="106343219#2" to="43405582#6"/>
    <trip id="54" depart="134.46" from="43405583#0" to="6601764#1"/>
    <trip id="55" depart="136.95" from="554230311#4" to="136124311#3"/>
    <trip id="56" depart="139.44" from="43405584#2" to="107088310#7"/>
    <trip id="57" depart="141.93" from="657562133" to="656511223#1"/>
    <trip id="58" depart="144.42" from="14567301#1" to="437157172#1"/>
    <trip id="59" depart="146.91" from="437157171#0" to="107088310#4"/>
    <trip id="60" depart="149.40" from="44336478#3" to="43405585#1"/>
    <trip id="61" depart="151.89" from="44336478#4" to="43405585#0"/>
    <trip id="62" depart="154.38" from="-43405584#0" to="164369277#0"/>
    <trip id="63" depart="156.87" from="-43405584#1" to="657562143"/>
    <trip id="64" depart="159.36" from="554230311#4" to="554230311#1"/>
    <trip id="65" depart="161.85" from="14567301#2" to="-657562133"/>
    <trip id="66" depart="164.34" from="554230311#4" to="6601764#0"/>
    <trip id="67" depart="166.83" from="106343219#0" to="43405584#0"/>
    <trip id="68" depart="169.32" from="-657562133" to="44336478#4"/>
    <trip id="69" depart="171.81" from="44336478#3" to="107088310#2"/>
    <trip id="70" depart="174.30" from="43405583#2" to="436766213#1"/>
    <trip id="71" depart="176.79" from="136124311#2" to="656511223#1"/>
    <trip id="72" depart="179.28" from="43405582#3" to="133150561#2"/>
    <trip id="73" depart="181.77" from="436766213#0" to="44336478#1"/>
    <trip id="74" depart="184.26" from="133150561#0" to="14567301#3"/>
    <trip id="75" depart="186.75" from="93601149" to="437157172#2"/>
    <trip id="76" depart="189.24" from="43405582#5" to="43405584#3"/>
    <trip id="77" depart="191.73" from="107088310#0" to="133150561#3"/>
    <trip id="78" depart="194.22" from="164369271#1" to="437157170#1"/>
    <trip id="79" depart="196.71" from="133150561#3" to="133150561#3"/>
    <trip id="80" depart="199.20" from="-657562133" to="437157172#0"/>
    <trip id="81" depart="201.69" from="133150561#2" to="657562135#1"/>
    <trip id="82" depart="204.18" from="554230311#2" to="-657562143"/>
    <trip id="83" depart="206.67" from="133150561#3" to="437157173#0"/>
    <trip id="84" depart="209.16" from="133150561#1" to="107088310#2"/>
    <trip id="85" depart="211.65" from="657562138#0" to="437157168"/>
    <trip id="86" depart="214.14" from="43405583#2" to="44336478#6"/>
    <trip id="87" depart="216.63" from="44336478#7" to="133150561#0"/>
    <trip id="88" depart="219.12" from="106343219#1" to="43405582#6"/>
    <trip id="89" depart="221.61" from="43405582#3" to="43405583#2"/>
    <trip id="90" depart="224.10" from="437157175#1" to="437157173#0"/>
    <trip id="91" depart="226.59" from="7971510#0" to="106343219#2"/>
    <trip id="92" depart="229.08" from="43405582#1" to="164369277#1"/>
    <trip id="93" depart="231.57" from="554230311#2" to="136124311#1"/>
    <trip id="94" depart="234.06" from="107088310#7" to="43405583#1"/>
    <trip id="95" depart="236.55" from="43405582#3" to="136124311#4"/>
    <trip id="96" depart="239.04" from="136124311#0" to="657562138#1"/>
    <trip id="97" depart="241.53" from="43405582#5" to="554230311#4"/>
    <trip id="98" depart="244.02" from="436766213#1" to="-43405585#0"/>
    <trip id="99" depart="246.51" from="93601149" to="554230311#2"/>
    <trip id="100" depart="249.00" from="6601764#2" to="657562138#1"/>
    <trip id="101" depart="251.49" from="554230311#1" to="107088310#5"/>
    <trip id="102" depart="253.98" from="43405584#0" to="133150561#2"/>
    <trip id="103" depart="256.47" from="43405582#1" to="-657562133"/>
    <trip id="104" depart="258.96" from="164369277#3" to="7971510#1"/>
    <trip id="105" depart="261.45" from="136124311#2" to="44336478#6"/>
    <trip id="106" depart="263.94" from="43405583#0" to="43405582#5"/>
    <trip id="107" depart="266.43" from="6601764#0" to="93601149"/>
    <trip id="108" depart="268.92" from="436766214#0" to="437157175#1"/>
    <trip id="109" depart="271.41" from="107088310#3" to="14567301#2"/>
    <trip id="110" depart="273.90" from="6601764#1" to="437157170#0"/>
    <trip id="111" depart="276.39" from="436766213#1" to="44336478#2"/>
    <trip id="112" depart="278.88" from="-43405585#1" to="437157170#1"/>
    <trip id="113" depart="281.37" from="43405584#2" to="554230311#3"/>
    <trip id="114" depart="283.86" from="107088310#4" to="6601764#2"/>
    <trip id="115" depart="286.35" from="-657562143" to="107088310#7"/>
    <trip id="116" depart="288.84" from="437157170#1" to="437157173#0"/>
    <trip id="117" depart="291.33" from="133150561#3" to="107088310#1"/>
    <trip id="118" depart="293.82" from="656511223#0" to="136124311#1"/>
    <trip id="119" depart="296.31" from="437157170#1" to="437157171#2"/>
    <trip id="120" depart="298.80" from="43405582#3" to="437157170#1"/>
    <trip id="121" depart="301.29" from="43405585#0" to="657562143"/>
    <trip id="122" depart="303.78" from="133150561#0" to="437157175#1"/>
    <trip id="123" depart="306.27" from="133150561#3" to="43405582#2"/>
    <trip id="124" depart="308.76" from="437157172#3" to="14567301#2"/>
    <trip id="125" depart="311.25" from="14567301#3" to="44336478#3"/>
    <trip id="126" depart="313.74" from="-657562133" to="43405583#1"/>
    <trip id="127" depart="316.23" from="93601149" to="93601149"/>
    <trip id="128" depart="318.72" from="-657562143" to="133150561#2"/>
    <trip id="129" depart="321.21" from="136124311#2" to="657562143"/>
    <trip id="130" depart="323.70" from="554230311#4" to="657562133"/>
    <trip id="131" depart="326.19" from="164369277#2" to="107088310#5"/>
    <trip id="132" depart="328.68" from="554230311#0" to="437157175#0"/>
    <trip id="133" depart="331.17" from="437157171#0" to="7971510#1"/>
    <trip id="134" depart="333.66" from="437157172#1" to="-43405584#0"/>
    <trip id="135" depart="336.15" from="4638449#0" to="14567301#2"/>
    <trip id="136" depart="338.64" from="437157172#2" to="6601764#0"/>
    <trip id="137" depart="341.13" from="107088310#1" to="107088310#1"/>
    <trip id="138" depart="343.62" from="106343219#2" to="436766214#1"/>
    <trip id="139" depart="346.11" from="136124311#3" to="437157171#1"/>
    <trip id="140" depart="348.60" from="437157175#0" to="133150561#1"/>
    <trip id="141" depart="351.09" from="437157171#2" to="136124311#3"/>
    <trip id="142" depart="353.58" from="43405584#0" to="657562135#1"/>
    <trip id="143" depart="356.07" from="554230311#1" to="106343219#1"/>
    <trip id="144" depart="358.56" from="43405582#3" to="136124311#4"/>
    <trip id="145" depart="361.05" from="-43405584#0" to="44336478#5"/>
    <trip id="146" depart="363.54" from="437157172#0" to="136124311#3"/>
    <trip id="147" depart="366.03" from="44336478#1" to="436766213#1"/>
    <trip id="148" depart="368.52" from="43405582#4" to="-43405584#0"/>
    <trip id="149" depart="371.01" from="-657562143" to="657562133"/>
    <trip id="150" depart="373.50" from="656511223#1" to="436766213#1"/>
    <trip id="151" depart="375.99" from="554230311#0" to="437157170#0"/>
    <trip id="152" depart="378.48" from="107088310#3" to="107088310#2"/>
    <trip id="153" depart="380.97" from="14567301#2" to="657562135#1"/>
    <trip id="154" depart="383.46" from="44336478#6" to="554230311#4"/>
    <trip id="155" depart="385.95" from="656511223#1" to="133150561#2"/>
    <trip id="156" depart="388.44" from="136124311#0" to="106343219#2"/>
    <trip id="157" depart="390.93" from="44336478#4" to="657562133"/>
    <trip id="158" depart="393.42" from="43405582#2" to="437157171#2"/>
    <trip id="159" depart="395.91" from="107088310#3" to="657562143"/>
    <trip id="160" depart="398.40" from="554230311#3" to="7971510#0"/>
    <trip id="161" depart="400.89" from="44336478#7" to="657562133"/>
    <trip id="162" depart="403.38" from="-43405584#2" to="44336478#1"/>
    <trip id="163" depart="405.87" from="164369271#0" to="657562143"/>
    <trip id="164" depart="408.36" from="44336478#7" to="554230311#4"/>
    <trip id="165" depart="410.85" from="44336478#7" to="136124311#3"/>
    <trip id="166" depart="413.34" from="44336478#5" to="106343219#3"/>
    <trip id="167" depart="415.83" from="554230311#3" to="554230311#4"/>
    <trip id="168" depart="418.32" from="133150561#2" to="4638449#1"/>
    <trip id="169" depart="420.81" from="43405583#1" to="14567301#3"/>
    <trip id="170" depart="423.30" from="44336478#6" to="133150561#3"/>
    <trip id="171" depart="425.79" from="-43405584#2" to="133150561#0"/>
    <trip id="172" depart="428.28" from="164369271#0" to="554230311#4"/>
    <trip id="173" depart="430.77" from="6601764#1" to="136124311#4"/>
    <trip id="174" depart="433.26" from="437157172#0" to="43405582#3"/>
    <trip id="175" depart="435.75" from="7971510#0" to="43405585#1"/>
    <trip id="176" depart="438.24" from="657562143" to="107088310#1"/>
    <trip id="177" depart="440.73" from="6601764#2" to="107088310#7"/>
    <trip id="178" depart="443.22" from="6601764#1" to="136124311#3"/>
    <trip id="179" depart="445.71" from="106343219#2" to="43405582#6"/>
    <trip id="180" depart="448.20" from="437157175#1" to="164369271#1"/>
    <trip id="181" depart="450.69" from="437157171#0" to="43405584#3"/>
    <trip id="182" depart="453.18" from="164369277#3" to="437157170#0"/>
    <trip id="183" depart="455.67" from="136124311#1" to="437157175#1"/>
    <trip id="184" depart="458.16" from="-43405584#0" to="657562138#1"/>
    <trip id="185" depart="460.65" from="436766213#0" to="437157175#2"/>
    <trip id="186" depart="463.14" from="44336478#1" to="437157173#0"/>
    <trip id="187" depart="465.63" from="164369277#1" to="-657562143"/>
    <trip id="188" depart="468.12" from="437157172#2" to="164369277#0"/>
    <trip id="189" depart="470.61" from="14567301#3" to="554230311#3"/>
    <trip id="190" depart="473.10" from="437157175#1" to="14567301#2"/>
    <trip id="191" depart="475.59" from="14567301#2" to="43405582#4"/>
    <trip id="192" depart="478.08" from="43405582#1" to="14567301#2"/>
    <trip id="193" depart="480.57" from="107088310#1" to="43405582#5"/>
    <trip id="194" depart="483.06" from="657562143" to="437157173#1"/>
    <trip id="195" depart="485.55" from="656511223#1" to="437157171#2"/>
    <trip id="196" depart="488.04" from="14567301#1" to="436766213#1"/>
    <trip id="197" depart="490.53" from="-43405584#0" to="14567301#1"/>
    <trip id="198" depart="493.02" from="43405582#4" to="437157170#0"/>
    <trip id="199" depart="495.51" from="437157172#1" to="43405583#2"/>
    <trip id="200" depart="498.00" from="43405582#5" to="133150561#2"/>
    <trip id="201" depart="500.49" from="43405583#2" to="657562135#1"/>
    <trip id="202" depart="502.98" from="44336478#6" to="107088310#6"/>
    <trip id="203" depart="505.47" from="106343219#0" to="43405584#3"/>
    <trip id="204" depart="507.96" from="437157171#2" to="164369277#1"/>
    <trip id="205" depart="510.45" from="4638449#0" to="44336478#3"/>
    <trip id="206" depart="512.94" from="437157172#3" to="133150561#3"/>
    <trip id="207" depart="515.43" from="133150561#0" to="-43405584#2"/>
    <trip id="208" depart="517.92" from="136124311#0" to="43405583#3"/>
    <trip id="209" depart="520.41" from="554230311#1" to="-657562143"/>
    <trip id="210" depart="522.90" from="43405582#2" to="437157172#0"/>
    <trip id="211" depart="525.39" from="107088310#7" to="437157174#1"/>
    <trip id="212" depart="527.88" from="43405584#1" to="136124311#1"/>
    <trip id="213" depart="530.37" from="437157172#1" to="-43405584#0"/>
    <trip id="214" depart="532.86" from="44336478#2" to="44336478#4"/>
    <trip id="215" depart="535.35" from="106343219#2" to="43405582#5"/>
    <trip id="216" depart="537.84" from="107088310#5" to="6601764#1"/>
    <trip id="217" depart="540.33" from="43405584#3" to="-43405585#0"/>
    <trip id="218" depart="542.82" from="136124311#0" to="554230311#3"/>
    <trip id="219" depart="545.31" from="43405583#0" to="44336478#7"/>
    <trip id="220" depart="547.80" from="437157172#3" to="7971510#1"/>
    <trip id="221" depart="550.29" from="437157170#1" to="6601764#1"/>
    <trip id="222" depart="552.78" from="656511223#0" to="437157171#1"/>
    <trip id="223" depart="555.27" from="437157175#1" to="43405584#2"/>
    <trip id="224" depart="557.76" from="4638449#1" to="436766213#1"/>
    <trip id="225" depart="560.25" from="656511223#1" to="44336478#2"/>
    <trip id="226" depart="562.74" from="43405583#2" to="136124311#2"/>
    <trip id="227" depart="565.23" from="136124311#0" to="437157172#1"/>
    <trip id="228" depart="567.72" from="44336478#3" to="43405585#0"/>
    <trip id="229" depart="570.21" from="437157171#2" to="136124311#4"/>
    <trip id="230" depart="572.70" from="-657562143" to="14567301#1"/>
    <trip id="231" depart="575.19" from="136124311#3" to="164369271#1"/>
    <trip id="232" depart="577.68" from="436766213#0" to="107088310#3"/>
    <trip id="233" depart="580.17" from="133150561#3" to="437157174#1"/>
    <trip id="234" depart="582.66" from="437157174#1" to="-657562143"/>
    <trip id="235" depart="585.15" from="43405582#2" to="436766213#1"/>
    <trip id="236" depart="587.64" from="43405582#2" to="133150561#1"/>
    <trip id="237" depart="590.13" from="43405582#3" to="657562135#1"/>
    <trip id="238" depart="592.62" from="437157170#0" to="437157174#1"/>
    <trip id="239" depart="595.11" from="554230311#2" to="44336478#4"/>
    <trip id="240" depart="597.60" from="164369277#3" to="-43405584#0"/>
    <trip id="241" depart="600.09" from="164369277#0" to="44336478#3"/>
    <trip id="242" depart="602.58" from="554230311#1" to="6601764#1"/>
    <trip id="243" depart="605.07" from="43405582#3" to="44336478#2"/>
    <trip id="244" depart="607.56" from="436766213#1" to="437157171#0"/>
    <trip id="245" depart="610.05" from="133150561#2" to="133150561#3"/>
    <trip id="246" depart="612.54" from="43405582#4" to="-43405584#2"/>
    <trip id="247" depart="615.03" from="164369271#1" to="437157173#1"/>
    <trip id="248" depart="617.52" from="43405582#1" to="107088310#5"/>
    <trip id="249" depart="620.01" from="43405583#1" to="107088310#2"/>
    <trip id="250" depart="622.50" from="437157171#1" to="-43405584#2"/>
    <trip id="251" depart="624.99" from="43405582#0" to="437157168"/>
    <trip id="252" depart="627.48" from="-43405584#2" to="437157172#1"/>
    <trip id="253" depart="629.97" from="107088310#2" to="43405583#2"/>
    <trip id="254" depart="632.46" from="-43405585#0" to="43405582#1"/>
    <trip id="255" depart="634.95" from="133150561#1" to="164369277#0"/>
    <trip id="256" depart="637.44" from="44336478#3" to="43405582#1"/>
    <trip id="257" depart="639.93" from="44336478#2" to="554230311#1"/>
    <trip id="258" depart="642.42" from="136124311#1" to="106343219#0"/>
    <trip id="259" depart="644.91" from="-43405584#1" to="43405585#1"/>
    <trip id="260" depart="647.40" from="93601149" to="164369277#2"/>
    <trip id="261" depart="649.89" from="437157172#1" to="44336478#5"/>
    <trip id="262" depart="652.38" from="437157172#1" to="44336478#3"/>
    <trip id="263" depart="654.87" from="6601764#0" to="133150561#1"/>
    <trip id="264" depart="657.36" from="-43405584#1" to="107088310#4"/>
    <trip id="265" depart="659.85" from="107088310#1" to="437157173#0"/>
    <trip id="266" depart="662.34" from="436766214#1" to="133150561#2"/>
    <trip id="267" depart="664.83" from="437157174#1" to="44336478#4"/>
    <trip id="268" depart="667.32" from="107088310#5" to="437157171#1"/>
    <trip id="269" depart="669.81" from="44336478#1" to="106343219#3"/>
    <trip id="270" depart="672.30" from="4638449#0" to="6601764#2"/>
    <trip id="271" depart="674.79" from="106343219#2" to="-43405584#2"/>
    <trip id="272" depart="677.28" from="14567301#2" to="437157173#1"/>
    <trip id="273" depart="679.77" from="6601764#0" to="43405582#3"/>
    <trip id="274" depart="682.26" from="437157175#0" to="106343219#0"/>
    <trip id="275" depart="684.75" from="437157174#0" to="437157172#0"/>
    <trip id="276" depart="687.24" from="106343219#1" to="44336478#5"/>
    <trip id="277" depart="689.73" from="554230311#1" to="437157171#0"/>
    <trip id="278" depart="692.22" from="107088310#0" to="7971510#1"/>
    <trip id="279" depart="694.71" from="44336478#5" to="164369277#2"/>
    <trip id="280" depart="697.20" from="43405582#4" to="43405582#0"/>
    <trip id="281" depart="699.69" from="43405584#2" to="164369277#1"/>
    <trip id="282" depart="702.18" from="554230311#1" to="4638449#1"/>
    <trip id="283" depart="704.67" from="106343219#2" to="6601764#2"/>
    <trip id="284" depart="707.16" from="437157172#0" to="554230311#1"/>
    <trip id="285" depart="709.65" from="437157174#1" to="43405582#6"/>
    <trip id="286" depart="712.14" from="44336478#0" to="6601764#2"/>
    <trip id="287" depart="714.63" from="136124311#2" to="4638449#0"/>
    <trip id="288" depart="717.12" from="436766213#0" to="43405584#0"/>
    <trip id="289" depart="719.61" from="43405582#4" to="44336478#1"/>
    <trip id="290" depart="722.10" from="136124311#2" to="554230311#3"/>
    <trip id="291" depart="724.59" from="4638449#1" to="106343219#1"/>
    <trip id="292" depart="727.08" from="554230311#4" to="136124311#1"/>
    <trip id="293" depart="729.57" from="43405583#1" to="437157171#1"/>
    <trip id="294" depart="732.06" from="164369277#3" to="-43405584#2"/>
    <trip id="295" depart="734.55" from="554230311#1" to="107088310#7"/>
    <trip id="296" depart="737.04" from="133150561#1" to="44336478#7"/>
    <trip id="297" depart="739.53" from="164369271#1" to="657562133"/>
    <trip id="298" depart="742.02" from="437157174#1" to="136124311#4"/>
    <trip id="299" depart="744.51" from="-43405584#0" to="6601764#1"/>
    <trip id="300" depart="747.00" from="106343219#0" to="437157175#2"/>
    <trip id="301" depart="749.49" from="43405584#0" to="44336478#3"/>
    <trip id="302" depart="751.98" from="437157174#0" to="437157172#2"/>
    <trip id="303" depart="754.47" from="43405584#1" to="44336478#7"/>
    <trip id="304" depart="756.96" from="106343219#0" to="133150561#3"/>
    <trip id="305" depart="759.45" from="437157174#0" to="14567301#3"/>
    <trip id="306" depart="761.94" from="437157168" to="43405583#3"/>
    <trip id="307" depart="764.43" from="43405585#0" to="43405582#5"/>
    <trip id="308" depart="766.92" from="44336478#1" to="164369277#0"/>
    <trip id="309" depart="769.41" from="437157174#1" to="136124311#4"/>
    <trip id="310" depart="771.90" from="136124311#1" to="107088310#1"/>
    <trip id="311" depart="774.39" from="107088310#7" to="107088310#1"/>
    <trip id="312" depart="776.88" from="436766213#0" to="44336478#4"/>
    <trip id="313" depart="779.37" from="107088310#6" to="133150561#2"/>
    <trip id="314" depart="781.86" from="43405584#0" to="437157175#2"/>
    <trip id="315" depart="784.35" from="6601764#2" to="43405585#0"/>
    <trip id="316" depart="786.84" from="14567301#0" to="106343219#2"/>
    <trip id="317" depart="789.33" from="107088310#7" to="133150561#3"/>
    <trip id="318" depart="791.82" from="107088310#6" to="-43405584#1"/>
    <trip id="319" depart="794.31" from="436766213#0" to="136124311#4"/>
    <trip id="320" depart="796.80" from="6601764#2" to="436766214#1"/>
    <trip id="321" depart="799.29" from="437157174#0" to="107088310#2"/>
    <trip id="322" depart="801.78" from="554230311#3" to="43405584#1"/>
    <trip id="323" depart="804.27" from="554230311#3" to="437157170#0"/>
    <trip id="324" depart="806.76" from="43405583#2" to="43405583#0"/>
    <trip id="325" depart="809.25" from="107088310#6" to="-43405585#0"/>
    <trip id="326" depart="811.74" from="657562143" to="43405583#3"/>
    <trip id="327" depart="814.23" from="4638449#0" to="43405582#3"/>
    <trip id="328" depart="816.72" from="-657562143" to="437157172#0"/>
    <trip id="329" depart="819.21" from="-43405585#1" to="107088310#4"/>
    <trip id="330" depart="821.70" from="436766214#1" to="14567301#3"/>
    <trip id="331" depart="824.19" from="93601149" to="107088310#1"/>
    <trip id="332" depart="826.68" from="44336478#3" to="437157171#1"/>
    <trip id="333" depart="829.17" from="44336478#5" to="133150561#3"/>
    <trip id="334" depart="831.66" from="43405585#0" to="43405583#1"/>
    <trip id="335" depart="834.15" from="43405582#5" to="554230311#4"/>
    <trip id="336" depart="836.64" from="93601149" to="14567301#3"/>
    <trip id="337" depart="839.13" from="437157171#1" to="437157171#1"/>
    <trip id="338" depart="841.62" from="44336478#1" to="6601764#0"/>
    <trip id="339" depart="844.11" from="133150561#0" to="133150561#2"/>
    <trip id="340" depart="846.60" from="437157172#2" to="107088310#5"/>
    <trip id="341" depart="849.09" from="107088310#5" to="106343219#0"/>
    <trip id="342" depart="851.58" from="-43405584#0" to="43405583#1"/>
    <trip id="343" depart="854.07" from="437157170#1" to="14567301#1"/>
    <trip id="344" depart="856.56" from="133150561#3" to="437157175#0"/>
    <trip id="345" depart="859.05" from="437157174#1" to="43405583#1"/>
    <trip id="346" depart="861.54" from="437157173#0" to="657562138#1"/>
    <trip id="347" depart="864.03" from="44336478#5" to="437157172#0"/>
    <trip id="348" depart="866.52" from="437157172#2" to="657562143"/>
    <trip id="349" depart="869.01" from="43405582#3" to="436766213#1"/>
    <trip id="350" depart="871.50" from="437157172#1" to="657562138#0"/>
    <trip id="351" depart="873.99" from="4638449#1" to="-657562143"/>
    <trip id="352" depart="876.48" from="107088310#4" to="14567301#3"/>
    <trip id="353" depart="878.97" from="44336478#1" to="437157168"/>
    <trip id="354" depart="881.46" from="14567301#0" to="107088310#1"/>
    <trip id="355" depart="883.95" from="437157174#0" to="437157175#0"/>
    <trip id="356" depart="886.44" from="657562143" to="43405584#2"/>
    <trip id="357" depart="888.93" from="43405584#1" to="106343219#0"/>
    <trip id="358" depart="891.42" from="-43405584#3" to="43405582#6"/>
    <trip id="359" depart="893.91" from="14567301#3" to="136124311#2"/>
    <trip id="360" depart="896.40" from="106343219#0" to="6601764#2"/>
    <trip id="361" depart="898.89" from="554230311#0" to="437157170#0"/>
    <trip id="362" depart="901.38" from="6601764#0" to="93601149"/>
    <trip id="363" depart="903.87" from="437157172#3" to="136124311#3"/>
    <trip id="364" depart="906.36" from="-43405584#3" to="44336478#3"/>
    <trip id="365" depart="908.85" from="43405583#2" to="437157172#2"/>
    <trip id="366" depart="911.34" from="657562133" to="107088310#7"/>
    <trip id="367" depart="913.83" from="437157170#0" to="437157172#0"/>
    <trip id="368" depart="916.32" from="43405584#1" to="106343219#1"/>
    <trip id="369" depart="918.81" from="164369277#0" to="164369277#0"/>
    <trip id="370" depart="921.30" from="437157172#3" to="554230311#4"/>
    <trip id="371" depart="923.79" from="164369271#0" to="437157174#1"/>
    <trip id="372" depart="926.28" from="14567301#0" to="6601764#0"/>
    <trip id="373" depart="928.77" from="4638449#0" to="436766213#1"/>
    <trip id="374" depart="931.26" from="43405583#0" to="164369271#1"/>
    <trip id="375" depart="933.75" from="164369271#0" to="7971510#0"/>
    <trip id="376" depart="936.24" from="43405582#1" to="43405584#3"/>
    <trip id="377" depart="938.73" from="7971510#0" to="437157172#3"/>
    <trip id="378" depart="941.22" from="436766213#1" to="43405582#4"/>
    <trip id="379" depart="943.71" from="107088310#7" to="164369277#3"/>
    <trip id="380" depart="946.20" from="44336478#2" to="437157172#0"/>
    <trip id="381" depart="948.69" from="44336478#2" to="133150561#1"/>
    <trip id="382" depart="951.18" from="436766213#1" to="657562143"/>
    <trip id="383" depart="953.67" from="43405582#5" to="437157175#0"/>
    <trip id="384" depart="956.16" from="107088310#0" to="7971510#0"/>
    <trip id="385" depart="958.65" from="437157171#0" to="133150561#4"/>
    <trip id="386" depart="961.14" from="107088310#4" to="436766213#1"/>
    <trip id="387" depart="963.63" from="436766214#0" to="106343219#1"/>
    <trip id="388" depart="966.12" from="93601149" to="657562138#0"/>
    <trip id="389" depart="968.61" from="43405583#1" to="107088310#1"/>
    <trip id="390" depart="971.10" from="4638449#1" to="43405584#1"/>
    <trip id="391" depart="973.59" from="437157175#0" to="43405584#2"/>
    <trip id="392" depart="976.08" from="136124311#3" to="554230311#2"/>
    <trip id="393" depart="978.57" from="7971510#0" to="136124311#1"/>
    <trip id="394" depart="981.06" from="436766213#1" to="43405582#1"/>
    <trip id="395" depart="983.55" from="657562135#0" to="43405584#2"/>
    <trip id="396" depart="986.04" from="554230311#4" to="554230311#4"/>
    <trip id="397" depart="988.53" from="136124311#3" to="44336478#6"/>
    <trip id="398" depart="991.02" from="43405582#2" to="657562143"/>
    <trip id="399" depart="993.51" from="43405584#2" to="4638449#1"/>
    <trip id="400" depart="996.00" from="14567301#0" to="14567301#2"/>
    <trip id="401" depart="998.49" from="437157170#0" to="93601149"/>
    <trip id="402" depart="1000.98" from="43405584#1" to="107088310#4"/>
    <trip id="403" depart="1003.47" from="436766213#0" to="164369277#2"/>
    <trip id="404" depart="1005.96" from="436766213#1" to="436766213#1"/>
    <trip id="405" depart="1008.45" from="43405583#0" to="164369271#1"/>
    <trip id="406" depart="1010.94" from="107088310#7" to="437157174#1"/>
    <trip id="407" depart="1013.43" from="436766214#1" to="133150561#4"/>
    <trip id="408" depart="1015.92" from="44336478#4" to="-43405585#0"/>
    <trip id="409" depart="1018.41" from="44336478#1" to="437157175#0"/>
    <trip id="410" depart="1020.90" from="44336478#7" to="43405582#2"/>
    <trip id="411" depart="1023.39" from="437157172#2" to="4638449#1"/>
    <trip id="412" depart="1025.88" from="7971510#0" to="43405584#1"/>