<?xml version="1.0" encoding="UTF-8"?>

<!-- generated on 2024-06-16 22:34:10 by Eclipse SUMO duarouter Version 1.19.0
<configuration xmlns:xsi="http://www.w3.org/2001/XMLSchema-instance" xsi:noNamespaceSchemaLocation="http://sumo.dlr.de/xsd/duarouterConfiguration.xsd">

    <input>
        <net-file value="red.sumo.xml"/>
        <route-files value="demanda.trips.xml"/>
    </input>

    <output>
        <output-file value="rutas.rou.xml"/>
    </output>

    <report>
        <ignore-errors value="true"/>
    </report>

</configuration>
-->

<routes xmlns:xsi="http://www.w3.org/2001/XMLSchema-instance" xsi:noNamespaceSchemaLocation="http://sumo.dlr.de/xsd/routes_file.xsd">
    <vehicle id="0" depart="0.00">
        <route edges="437157172#0 437157172#1 437157172#2 437157172#3 43405584#0 43405584#1 43405584#2 43405584#3 -43405584#3 -43405584#2"/>
    </vehicle>
    <vehicle id="2" depart="4.98">
        <route edges="44336478#0 44336478#1 44336478#2 44336478#3 44336478#4 44336478#5 44336478#6 44336478#7 437157171#0 437157171#1 437157171#2 437157170#0 437157170#1 437157168 437157173#0"/>
    </vehicle>
    <vehicle id="3" depart="7.47">
        <route edges="656511223#0 656511223#1 -43405584#3 -43405584#2 -43405584#1 -43405584#0 437157171#0 437157171#1 437157171#2 437157170#0 437157170#1 106343219#0 106343219#1"/>
    </vehicle>
    <vehicle id="5" depart="12.45">
        <route edges="133150561#1 656511223#1 -43405584#3 -43405584#2 -43405584#1 -43405584#0 43405584#0 43405584#1 43405584#2"/>
    </vehicle>
    <vehicle id="6" depart="14.94">
        <route edges="-43405584#2 -43405584#1 -43405584#0 43405582#0 43405582#1 43405582#2 133150561#0 133150561#1"/>
    </vehicle>
    <vehicle id="8" depart="19.92">
        <route edges="133150561#2 133150561#3 554230311#4 -657562143 -657562133 -43405584#3 -43405584#2 -43405584#1 -43405584#0 437157171#0 437157171#1 437157171#2 437157170#0 437157170#1"/>
    </vehicle>
    <vehicle id="9" depart="22.41">
        <route edges="44336478#7 43405584#0 43405584#1 43405584#2 43405584#3 -43405584#3 -43405584#2 -43405584#1 -43405584#0"/>
    </vehicle>
    <vehicle id="10" depart="24.90">
        <route edges="44336478#7 437157171#0 437157171#1 437157171#2 437157175#0"/>
    </vehicle>
    <vehicle id="11" depart="27.39">
        <route edges="164369271#1 6601764#0 6601764#1 6601764#2 133150561#0 133150561#1 133150561#2 133150561#3 554230311#4 43405583#0 43405583#1 107088310#4"/>
    </vehicle>
    <vehicle id="13" depart="32.37">
        <route edges="106343219#0 106343219#1 106343219#2"/>
    </vehicle>
    <vehicle id="14" depart="34.86">
        <route edges="554230311#1 554230311#2 554230311#3 554230311#4 -657562143 -657562133 -43405584#3 -43405584#2 -43405584#1 -43405584#0 437157171#0"/>
    </vehicle>
    <vehicle id="19" depart="47.31">
        <route edges="554230311#2 554230311#3 554230311#4 -657562143 -657562133 -43405584#3 -43405584#2 -43405584#1 -43405584#0 437157171#0 437157171#1 437157171#2 437157170#0"/>
    </vehicle>
    <vehicle id="22" depart="54.78">
        <route edges="-657562143 657562138#0 133150561#3 133150561#4"/>
    </vehicle>
    <vehicle id="24" depart="59.76">
        <route edges="437157172#0 437157172#1 437157172#2 437157172#3 43405582#0"/>
    </vehicle>
    <vehicle id="25" depart="62.25">
        <route edges="164369277#2 164369277#3 437157172#0 437157172#1 437157172#2 437157172#3 43405582#0 43405582#1 43405582#2 133150561#0 133150561#1 133150561#2"/>
    </vehicle>
    <vehicle id="27" depart="67.23">
        <route edges="437157172#1 437157172#2 437157172#3 43405584#0 43405584#1 43405584#2 43405584#3 -43405584#3 -43405584#2 -43405584#1 -43405584#0 437157171#0 437157171#1"/>
    </vehicle>
    <vehicle id="28" depart="69.72">
        <route edges="107088310#5 107088310#6 107088310#7 44336478#5 44336478#6 44336478#7 437157171#0 437157171#1 437157171#2 437157175#0 437157175#1 437157175#2"/>
    </vehicle>
    <vehicle id="29" depart="72.21">
        <route edges="107088310#4 14567301#3 -657562133 -43405584#3 -43405584#2 -43405584#1 -43405584#0 43405582#0 43405582#1"/>
    </vehicle>
    <vehicle id="31" depart="77.19">
        <route edges="436766214#0 436766214#1 164369277#0 164369277#1 164369277#2 164369277#3 437157170#0 437157170#1 437157168 437157173#0 437157173#1"/>
    </vehicle>
    <vehicle id="32" depart="79.68">
        <route edges="554230311#0 554230311#1 554230311#2 554230311#3 554230311#4 -657562143 -657562133 657562135#0 107088310#6 107088310#7 44336478#5"/>
    </vehicle>
    <vehicle id="33" depart="82.17">
        <route edges="133150561#2 133150561#3 554230311#4 -657562143 -657562133 -43405584#3"/>
    </vehicle>
    <vehicle id="34" depart="84.66">
        <route edges="14567301#3 -657562133 -43405584#3 -43405584#2 -43405584#1 -43405584#0 437157171#0 437157171#1 437157171#2 437157170#0 437157170#1 437157168 4638449#0 4638449#1 136124311#3"/>
    </vehicle>
    <vehicle id="37" depart="92.13">
        <route edges="437157172#1 437157172#2 437157172#3 43405582#0 43405582#1 43405582#2"/>
    </vehicle>
    <vehicle id="38" depart="94.62">
        <route edges="657562133 657562143 43405585#0 43405585#1 -43405585#1 -43405585#0 43405583#0 43405583#1 43405583#2"/>
    </vehicle>
    <vehicle id="40" depart="99.60">
        <route edges="436766214#0 436766214#1 164369277#0 164369277#1 164369277#2 164369277#3 437157170#0 437157170#1 437157168 4638449#0 4638449#1 136124311#3"/>
    </vehicle>
    <vehicle id="42" depart="104.58">
        <route edges="43405582#1 43405582#2 133150561#0 133150561#1 133150561#2 133150561#3"/>
    </vehicle>
    <vehicle id="43" depart="107.07">
        <route edges="93601149 44336478#6 44336478#7 43405584#0 43405584#1 43405584#2"/>
    </vehicle>
    <vehicle id="46" depart="114.54">
        <route edges="44336478#6 44336478#7 43405582#0 43405582#1 43405582#2 43405582#3 43405582#4 43405582#5"/>
    </vehicle>
    <vehicle id="47" depart="117.03">
        <route edges="-657562133 -43405584#3 -43405584#2 -43405584#1 -43405584#0 43405582#0 43405582#1"/>
    </vehicle>
    <vehicle id="48" depart="119.52">
        <route edges="93601149 44336478#6 44336478#7 43405584#0 43405584#1 43405584#2 43405584#3 657562133 657562143 43405585#0"/>
    </vehicle>
    <vehicle id="49" depart="122.01">
        <route edges="6601764#2 133150561#0 133150561#1 133150561#2 133150561#3 554230311#4"/>
    </vehicle>
    <vehicle id="50" depart="124.50">
        <route edges="-43405584#1 -43405584#0 437157171#0 437157171#1 437157171#2 437157175#0 437157175#1 437157175#2"/>
    </vehicle>
    <vehicle id="55" depart="136.95">
        <route edges="554230311#4 -657562143 -657562133 -43405584#3 -43405584#2 -43405584#1 -43405584#0 437157171#0 437157171#1 437157171#2 437157170#0 437157170#1 437157168 4638449#0 4638449#1 136124311#3"/>
    </vehicle>
    <vehicle id="56" depart="139.44">
        <route edges="43405584#2 43405584#3 657562135#0 107088310#6 107088310#7"/>
    </vehicle>
    <vehicle id="57" depart="141.93">
        <route edges="657562133 -657562133 -43405584#3 -43405584#2 -43405584#1 -43405584#0 43405582#0 43405582#1 43405582#2 133150561#0 133150561#1 656511223#1"/>
    </vehicle>
    <vehicle id="59" depart="146.91">
        <route edges="437157171#0 437157171#1 437157171#2 437157175#0 437157175#1 93601149 44336478#6 44336478#7 43405584#0 43405584#1 43405584#2 43405584#3 657562133 657562143 43405585#0 43405585#1 -43405585#1 -43405585#0 43405583#0 43405583#1 107088310#4"/>
    </vehicle>
    <vehicle id="60" depart="149.40">
        <route edges="44336478#3 44336478#4 44336478#5 44336478#6 44336478#7 43405584#0 43405584#1 43405584#2 43405584#3 657562133 657562143 43405585#0 43405585#1"/>
    </vehicle>
    <vehicle id="61" depart="151.89">
        <route edges="44336478#4 44336478#5 44336478#6 44336478#7 43405584#0 43405584#1 43405584#2 43405584#3 657562133 657562143 43405585#0"/>
    </vehicle>
    <vehicle id="63" depart="156.87">
        <route edges="-43405584#1 -43405584#0 43405584#0 43405584#1 43405584#2 43405584#3 657562133 657562143"/>
    </vehicle>
    <vehicle id="65" depart="161.85">
        <route edges="14567301#2 14567301#3 -657562133"/>
    </vehicle>
    <vehicle id="74" depart="184.26">
        <route edges="133150561#0 133150561#1 133150561#2 133150561#3 554230311#4 43405583#0 43405583#1 107088310#4 14567301#3"/>
    </vehicle>
    <vehicle id="77" depart="191.73">
        <route edges="107088310#0 107088310#1 107088310#2 107088310#3 107088310#4 14567301#3 657562138#0 133150561#3"/>
    </vehicle>
    <vehicle id="78" depart="194.22">
        <route edges="164369271#1 164369277#0 164369277#1 164369277#2 164369277#3 437157170#0 437157170#1"/>
    </vehicle>
    <vehicle id="79" depart="196.71">
        <route edges="133150561#3"/>
    </vehicle>
    <vehicle id="81" depart="201.69">
        <route edges="133150561#2 133150561#3 554230311#4 -657562143 -657562133 657562135#0 657562135#1"/>
    </vehicle>
    <vehicle id="82" depart="204.18">
        <route edges="554230311#2 554230311#3 554230311#4 -657562143"/>
    </vehicle>
    <vehicle id="83" depart="206.67">
        <route edges="133150561#3 554230311#4 -657562143 -657562133 -43405584#3 -43405584#2 -43405584#1 -43405584#0 437157171#0 437157171#1 437157171#2 437157170#0 437157170#1 437157168 437157173#0"/>
    </vehicle>
    <vehicle id="85" depart="211.65">
        <route edges="657562138#0 133150561#3 554230311#4 -657562143 -657562133 -43405584#3 -43405584#2 -43405584#1 -43405584#0 437157171#0 437157171#1 437157171#2 437157170#0 437157170#1 437157168"/>
    </vehicle>
    <vehicle id="87" depart="216.63">
        <route edges="44336478#7 43405582#0 43405582#1 43405582#2 133150561#0"/>
    </vehicle>
    <vehicle id="90" depart="224.10">
        <route edges="437157175#1 93601149 44336478#6 44336478#7 437157171#0 437157171#1 437157171#2 437157170#0 437157170#1 437157168 437157173#0"/>
    </vehicle>
    <vehicle id="94" depart="234.06">
        <route edges="107088310#7 44336478#5 44336478#6 44336478#7 43405584#0 43405584#1 43405584#2 43405584#3 657562133 657562143 43405585#0 43405585#1 -43405585#1 -43405585#0 43405583#0 43405583#1"/>
    </vehicle>
    <vehicle id="100" depart="249.00">
        <route edges="6601764#2 133150561#0 133150561#1 133150561#2 657562138#1"/>
    </vehicle>
    <vehicle id="101" depart="251.49">
        <route edges="554230311#1 554230311#2 554230311#3 554230311#4 43405583#0 43405583#1 107088310#4 107088310#5"/>
    </vehicle>
    <vehicle id="102" depart="253.98">
        <route edges="43405584#0 43405584#1 43405584#2 43405584#3 -43405584#3 -43405584#2 -43405584#1 -43405584#0 43405582#0 43405582#1 43405582#2 133150561#0 133150561#1 133150561#2"/>
    </vehicle>
    <vehicle id="103" depart="256.47">
        <route edges="43405582#1 43405582#2 133150561#0 133150561#1 656511223#1 657562133 -657562133"/>
    </vehicle>
    <vehicle id="106" depart="263.94">
        <route edges="43405583#0 43405583#1 107088310#4 14567301#3 -657562133 -43405584#3 -43405584#2 -43405584#1 -43405584#0 43405582#0 43405582#1 43405582#2 43405582#3 43405582#4 43405582#5"/>
    </vehicle>
    <vehicle id="107" depart="266.43">
        <route edges="6601764#0 6601764#1 6601764#2 133150561#0 133150561#1 656511223#1 -43405584#3 -43405584#2 -43405584#1 -43405584#0 437157171#0 437157171#1 437157171#2 437157175#0 437157175#1 93601149"/>
    </vehicle>
    <vehicle id="108" depart="268.92">
        <route edges="436766214#0 436766214#1 164369277#0 164369277#1 164369277#2 164369277#3 437157175#0 437157175#1"/>
    </vehicle>
    <vehicle id="110" depart="273.90">
        <route edges="6601764#1 6601764#2 133150561#0 133150561#1 656511223#1 -43405584#3 -43405584#2 -43405584#1 -43405584#0 437157171#0 437157171#1 437157171#2 437157170#0"/>
    </vehicle>
    <vehicle id="112" depart="278.88">
        <route edges="-43405585#1 -43405585#0 -657562143 -657562133 -43405584#3 -43405584#2 -43405584#1 -43405584#0 437157171#0 437157171#1 437157171#2 437157170#0 437157170#1"/>
    </vehicle>
    <vehicle id="115" depart="286.35">
        <route edges="-657562143 -657562133 657562135#0 107088310#6 107088310#7"/>
    </vehicle>
    <vehicle id="116" depart="288.84">
        <route edges="437157170#1 437157168 437157173#0"/>
    </vehicle>
    <vehicle id="121" depart="301.29">
        <route edges="43405585#0 43405585#1 -43405585#1 -43405585#0 -657562143 657562143"/>
    </vehicle>
    <vehicle id="122" depart="303.78">
        <route edges="133150561#0 133150561#1 656511223#1 -43405584#3 -43405584#2 -43405584#1 -43405584#0 437157171#0 437157171#1 437157171#2 437157175#0 437157175#1"/>
    </vehicle>
    <vehicle id="123" depart="306.27">
        <route edges="133150561#3 554230311#4 -657562143 -657562133 -43405584#3 -43405584#2 -43405584#1 -43405584#0 43405582#0 43405582#1 43405582#2"/>
    </vehicle>
    <vehicle id="126" depart="313.74">
        <route edges="-657562133 657562133 657562143 43405585#0 43405585#1 -43405585#1 -43405585#0 43405583#0 43405583#1"/>
    </vehicle>
    <vehicle id="127" depart="316.23">
        <route edges="93601149"/>
    </vehicle>
    <vehicle id="128" depart="318.72">
        <route edges="-657562143 -657562133 -43405584#3 -43405584#2 -43405584#1 -43405584#0 43405582#0 43405582#1 43405582#2 133150561#0 133150561#1 133150561#2"/>
    </vehicle>
    <vehicle id="130" depart="323.70">
        <route edges="554230311#4 -657562143 -657562133 657562133"/>
    </vehicle>
    <vehicle id="131" depart="326.19">
        <route edges="164369277#2 164369277#3 437157172#0 437157172#1 437157172#2 437157172#3 43405584#0 43405584#1 43405584#2 43405584#3 657562133 657562143 43405585#0 43405585#1 -43405585#1 -43405585#0 43405583#0 43405583#1 107088310#4 107088310#5"/>
    </vehicle>
    <vehicle id="132" depart="328.68">
        <route edges="554230311#0 554230311#1 554230311#2 554230311#3 554230311#4 -657562143 -657562133 -43405584#3 -43405584#2 -43405584#1 -43405584#0 437157171#0 437157171#1 437157171#2 437157175#0"/>
    </vehicle>
    <vehicle id="134" depart="333.66">
        <route edges="437157172#1 437157172#2 437157172#3 43405584#0 43405584#1 43405584#2 43405584#3 -43405584#3 -43405584#2 -43405584#1 -43405584#0"/>
    </vehicle>
    <vehicle id="137" depart="341.13">
        <route edges="107088310#1"/>
    </vehicle>
    <vehicle id="140" depart="348.60">
        <route edges="437157175#0 437157175#1 93601149 44336478#6 44336478#7 43405582#0 43405582#1 43405582#2 133150561#0 133150561#1"/>
    </vehicle>
    <vehicle id="141" depart="351.09">
        <route edges="437157171#2 437157170#0 437157170#1 437157168 4638449#0 4638449#1 136124311#3"/>
    </vehicle>
    <vehicle id="142" depart="353.58">
        <route edges="43405584#0 43405584#1 43405584#2 43405584#3 657562135#0 657562135#1"/>
    </vehicle>
    <vehicle id="143" depart="356.07">
        <route edges="554230311#1 554230311#2 554230311#3 554230311#4 -657562143 -657562133 -43405584#3 -43405584#2 -43405584#1 -43405584#0 437157171#0 437157171#1 437157171#2 437157170#0 437157170#1 106343219#0 106343219#1"/>
    </vehicle>
    <vehicle id="145" depart="361.05">
        <route edges="-43405584#0 43405584#0 43405584#1 43405584#2 43405584#3 657562135#0 107088310#6 107088310#7 44336478#5"/>
    </vehicle>
    <vehicle id="146" depart="363.54">
        <route edges="437157172#0 437157172#1 437157172#2 437157172#3 43405584#0 43405584#1 43405584#2 43405584#3 -43405584#3 -43405584#2 -43405584#1 -43405584#0 437157171#0 437157171#1 437157171#2 437157170#0 437157170#1 437157168 4638449#0 4638449#1 136124311#3"/>
    </vehicle>
    <vehicle id="149" depart="371.01">
        <route edges="-657562143 -657562133 657562133"/>
    </vehicle>
    <vehicle id="151" depart="375.99">
        <route edges="554230311#0 554230311#1 554230311#2 554230311#3 554230311#4 -657562143 -657562133 -43405584#3 -43405584#2 -43405584#1 -43405584#0 437157171#0 437157171#1 437157171#2 437157170#0"/>
    </vehicle>
    <vehicle id="153" depart="380.97">
        <route edges="14567301#2 107088310#5 657562135#1"/>
    </vehicle>
    <vehicle id="154" depart="383.46">
        <route edges="44336478#6 44336478#7 43405582#0 43405582#1 43405582#2 133150561#0 133150561#1 133150561#2 133150561#3 554230311#4"/>
    </vehicle>
    <vehicle id="155" depart="385.95">
        <route edges="656511223#1 -43405584#3 -43405584#2 -43405584#1 -43405584#0 43405582#0 43405582#1 43405582#2 133150561#0 133150561#1 133150561#2"/>
    </vehicle>
    <vehicle id="157" depart="390.93">
        <route edges="44336478#4 44336478#5 44336478#6 44336478#7 43405584#0 43405584#1 43405584#2 43405584#3 657562133"/>
    </vehicle>
    <vehicle id="158" depart="393.42">
        <route edges="43405582#2 133150561#0 133150561#1 656511223#1 -43405584#3 -43405584#2 -43405584#1 -43405584#0 437157171#0 437157171#1 437157171#2"/>
    </vehicle>
    <vehicle id="159" depart="395.91">
        <route edges="107088310#3 107088310#4 14567301#3 657562143"/>
    </vehicle>
    <vehicle id="161" depart="400.89">
        <route edges="44336478#7 43405584#0 43405584#1 43405584#2 43405584#3 657562133"/>
    </vehicle>
    <vehicle id="163" depart="405.87">
        <route edges="164369271#0 164369271#1 164369277#0 164369277#1 164369277#2 164369277#3 437157172#0 437157172#1 437157172#2 437157172#3 43405584#0 43405584#1 43405584#2 43405584#3 657562133 657562143"/>
    </vehicle>
    <vehicle id="164" depart="408.36">
        <route edges="44336478#7 43405582#0 43405582#1 43405582#2 133150561#0 133150561#1 133150561#2 133150561#3 554230311#4"/>
    </vehicle>
    <vehicle id="165" depart="410.85">
        <route edges="44336478#7 437157171#0 437157171#1 437157171#2 437157170#0 437157170#1 437157168 4638449#0 4638449#1 136124311#3"/>
    </vehicle>
    <vehicle id="166" depart="413.34">
        <route edges="44336478#5 44336478#6 44336478#7 437157171#0 437157171#1 437157171#2 437157170#0 437157170#1 106343219#0 106343219#1 106343219#2 106343219#3"/>
    </vehicle>
    <vehicle id="167" depart="415.83">
        <route edges="554230311#3 554230311#4"/>
    </vehicle>
    <vehicle id="168" depart="418.32">
        <route edges="133150561#2 133150561#3 554230311#4 -657562143 -657562133 -43405584#3 -43405584#2 -43405584#1 -43405584#0 437157171#0 437157171#1 437157171#2 437157170#0 437157170#1 437157168 4638449#0 4638449#1"/>
    </vehicle>
    <vehicle id="169" depart="420.81">
        <route edges="43405583#1 107088310#4 14567301#3"/>
    </vehicle>
    <vehicle id="170" depart="423.30">
        <route edges="44336478#6 44336478#7 43405582#0 43405582#1 43405582#2 133150561#0 133150561#1 133150561#2 133150561#3"/>
    </vehicle>
    <vehicle id="171" depart="425.79">
        <route edges="-43405584#2 -43405584#1 -43405584#0 43405582#0 43405582#1 43405582#2 133150561#0"/>
    </vehicle>
    <vehicle id="172" depart="428.28">
        <route edges="164369271#0 164369271#1 6601764#0 6601764#1 6601764#2 133150561#0 133150561#1 133150561#2 133150561#3 554230311#4"/>
    </vehicle>
    <vehicle id="173" depart="430.77">
        <route edges="6601764#1 6601764#2 133150561#0 133150561#1 656511223#1 -43405584#3 -43405584#2 -43405584#1 -43405584#0 437157171#0 437157171#1 437157171#2 437157170#0 437157170#1 437157168 4638449#0 4638449#1 136124311#3 136124311#4"/>
    </vehicle>
    <vehicle id="174" depart="433.26">
        <route edges="437157172#0 437157172#1 437157172#2 437157172#3 43405582#0 43405582#1 43405582#2 43405582#3"/>
    </vehicle>
    <vehicle id="177" depart="440.73">
        <route edges="6601764#2 133150561#0 133150561#1 656511223#1 657562135#0 107088310#6 107088310#7"/>
    </vehicle>
    <vehicle id="178" depart="443.22">
        <route edges="6601764#1 6601764#2 133150561#0 133150561#1 656511223#1 -43405584#3 -43405584#2 -43405584#1 -43405584#0 437157171#0 437157171#1 437157171#2 437157170#0 437157170#1 437157168 4638449#0 4638449#1 136124311#3"/>
    </vehicle>
    <vehicle id="181" depart="450.69">
        <route edges="437157171#0 437157171#1 437157171#2 437157175#0 437157175#1 93601149 44336478#6 44336478#7 43405584#0 43405584#1 43405584#2 43405584#3"/>
    </vehicle>
    <vehicle id="182" depart="453.18">
        <route edges="164369277#3 437157170#0"/>
    </vehicle>
    <vehicle id="184" depart="458.16">
        <route edges="-43405584#0 43405582#0 43405582#1 43405582#2 133150561#0 133150561#1 133150561#2 657562138#1"/>
    </vehicle>
    <vehicle id="186" depart="463.14">
        <route edges="44336478#1 44336478#2 44336478#3 44336478#4 44336478#5 44336478#6 44336478#7 437157171#0 437157171#1 437157171#2 437157170#0 437157170#1 437157168 437157173#0"/>
    </vehicle>
    <vehicle id="187" depart="465.63">
        <route edges="164369277#1 164369277#2 164369277#3 437157172#0 437157172#1 437157172#2 437157172#3 43405584#0 43405584#1 43405584#2 43405584#3 657562133 657562143 43405585#0 43405585#1 -43405585#1 -43405585#0 -657562143"/>
    </vehicle>
    <vehicle id="191" depart="475.59">
        <route edges="14567301#2 14567301#3 -657562133 -43405584#3 -43405584#2 -43405584#1 -43405584#0 43405582#0 43405582#1 43405582#2 43405582#3 43405582#4"/>
    </vehicle>
    <vehicle id="193" depart="480.57">
        <route edges="107088310#1 107088310#2 107088310#3 107088310#4 14567301#3 -657562133 -43405584#3 -43405584#2 -43405584#1 -43405584#0 43405582#0 43405582#1 43405582#2 43405582#3 43405582#4 43405582#5"/>
    </vehicle>
    <vehicle id="194" depart="483.06">
        <route edges="657562143 43405585#0 43405585#1 -43405585#1 -43405585#0 -657562143 -657562133 -43405584#3 -43405584#2 -43405584#1 -43405584#0 437157171#0 437157171#1 437157171#2 437157170#0 437157170#1 437157168 437157173#0 437157173#1"/>
    </vehicle>
    <vehicle id="195" depart="485.55">
        <route edges="656511223#1 -43405584#3 -43405584#2 -43405584#1 -43405584#0 437157171#0 437157171#1 437157171#2"/>
    </vehicle>
    <vehicle id="199" depart="495.51">
        <route edges="437157172#1 437157172#2 437157172#3 43405584#0 43405584#1 43405584#2 43405584#3 657562133 657562143 43405585#0 43405585#1 -43405585#1 -43405585#0 43405583#0 43405583#1 43405583#2"/>
    </vehicle>
    <vehicle id="202" depart="502.98">
        <route edges="44336478#6 44336478#7 43405584#0 43405584#1 43405584#2 43405584#3 657562135#0 107088310#6"/>
    </vehicle>
    <vehicle id="206" depart="512.94">
        <route edges="437157172#3 43405582#0 43405582#1 43405582#2 133150561#0 133150561#1 133150561#2 133150561#3"/>
    </vehicle>
    <vehicle id="207" depart="515.43">
        <route edges="133150561#0 133150561#1 656511223#1 -43405584#3 -43405584#2"/>
    </vehicle>
    <vehicle id="209" depart="520.41">
        <route edges="554230311#1 554230311#2 554230311#3 554230311#4 -657562143"/>
    </vehicle>
    <vehicle id="213" depart="530.37">
        <route edges="437157172#1 437157172#2 437157172#3 43405584#0 43405584#1 43405584#2 43405584#3 -43405584#3 -43405584#2 -43405584#1 -43405584#0"/>
    </vehicle>
    <vehicle id="214" depart="532.86">
        <route edges="44336478#2 44336478#3 44336478#4"/>
    </vehicle>
    <vehicle id="217" depart="540.33">
        <route edges="43405584#3 657562133 657562143 43405585#0 43405585#1 -43405585#1 -43405585#0"/>
    </vehicle>
    <vehicle id="219" depart="545.31">
        <route edges="43405583#0 43405583#1 107088310#4 107088310#5 107088310#6 107088310#7 44336478#5 44336478#6 44336478#7"/>
    </vehicle>
    <vehicle id="222" depart="552.78">
        <route edges="656511223#0 656511223#1 -43405584#3 -43405584#2 -43405584#1 -43405584#0 437157171#0 437157171#1"/>
    </vehicle>
    <vehicle id="223" depart="555.27">
        <route edges="437157175#1 93601149 44336478#6 44336478#7 43405584#0 43405584#1 43405584#2"/>
    </vehicle>
    <vehicle id="228" depart="567.72">
        <route edges="44336478#3 44336478#4 44336478#5 44336478#6 44336478#7 43405584#0 43405584#1 43405584#2 43405584#3 657562133 657562143 43405585#0"/>
    </vehicle>
    <vehicle id="229" depart="570.21">
        <route edges="437157171#2 437157170#0 437157170#1 437157168 4638449#0 4638449#1 136124311#3 136124311#4"/>
    </vehicle>
    <vehicle id="236" depart="587.64">
        <route edges="43405582#2 133150561#0 133150561#1"/>
    </vehicle>
    <vehicle id="240" depart="597.60">
        <route edges="164369277#3 437157172#0 437157172#1 437157172#2 437157172#3 43405584#0 43405584#1 43405584#2 43405584#3 -43405584#3 -43405584#2 -43405584#1 -43405584#0"/>
    </vehicle>
    <vehicle id="245" depart="610.05">
        <route edges="133150561#2 133150561#3"/>
    </vehicle>
    <vehicle id="247" depart="615.03">
        <route edges="164369271#1 164369277#0 164369277#1 164369277#2 164369277#3 437157170#0 437157170#1 437157168 437157173#0 437157173#1"/>
    </vehicle>
    <vehicle id="248" depart="617.52">
        <route edges="43405582#1 43405582#2 133150561#0 133150561#1 133150561#2 133150561#3 554230311#4 43405583#0 43405583#1 107088310#4 107088310#5"/>
    </vehicle>
    <vehicle id="250" depart="622.50">
        <route edges="437157171#1 437157171#2 437157175#0 437157175#1 93601149 44336478#6 44336478#7 43405584#0 43405584#1 43405584#2 43405584#3 -43405584#3 -43405584#2"/>
    </vehicle>
    <vehicle id="251" depart="624.99">
        <route edges="43405582#0 43405582#1 43405582#2 133150561#0 133150561#1 656511223#1 -43405584#3 -43405584#2 -43405584#1 -43405584#0 437157171#0 437157171#1 437157171#2 437157170#0 437157170#1 437157168"/>
    </vehicle>
    <vehicle id="253" depart="629.97">
        <route edges="107088310#2 107088310#3 43405583#2"/>
    </vehicle>
    <vehicle id="254" depart="632.46">
        <route edges="-43405585#0 -657562143 -657562133 -43405584#3 -43405584#2 -43405584#1 -43405584#0 43405582#0 43405582#1"/>
    </vehicle>
    <vehicle id="256" depart="637.44">
        <route edges="44336478#3 44336478#4 44336478#5 44336478#6 44336478#7 43405582#0 43405582#1"/>
    </vehicle>
    <vehicle id="259" depart="644.91">
        <route edges="-43405584#1 -43405584#0 43405584#0 43405584#1 43405584#2 43405584#3 657562133 657562143 43405585#0 43405585#1"/>
    </vehicle>
    <vehicle id="261" depart="649.89">
        <route edges="437157172#1 437157172#2 437157172#3 43405584#0 43405584#1 43405584#2 43405584#3 657562135#0 107088310#6 107088310#7 44336478#5"/>
    </vehicle>
    <vehicle id="263" depart="654.87">
        <route edges="6601764#0 6601764#1 6601764#2 133150561#0 133150561#1"/>
    </vehicle>
    <vehicle id="264" depart="657.36">
        <route edges="-43405584#1 -43405584#0 43405584#0 43405584#1 43405584#2 43405584#3 657562133 657562143 43405585#0 43405585#1 -43405585#1 -43405585#0 43405583#0 43405583#1 107088310#4"/>
    </vehicle>
    <vehicle id="265" depart="659.85">
        <route edges="107088310#1 107088310#2 107088310#3 107088310#4 14567301#3 -657562133 -43405584#3 -43405584#2 -43405584#1 -43405584#0 437157171#0 437157171#1 437157171#2 437157170#0 437157170#1 437157168 437157173#0"/>
    </vehicle>
    <vehicle id="266" depart="662.34">
        <route edges="436766214#1 6601764#0 6601764#1 6601764#2 133150561#0 133150561#1 133150561#2"/>
    </vehicle>
    <vehicle id="268" depart="667.32">
        <route edges="107088310#5 107088310#6 107088310#7 44336478#5 44336478#6 44336478#7 437157171#0 437157171#1"/>
    </vehicle>
    <vehicle id="269" depart="669.81">
        <route edges="44336478#1 44336478#2 44336478#3 44336478#4 44336478#5 44336478#6 44336478#7 437157171#0 437157171#1 437157171#2 437157170#0 437157170#1 106343219#0 106343219#1 106343219#2 106343219#3"/>
    </vehicle>
    <vehicle id="272" depart="677.28">
        <route edges="14567301#2 14567301#3 -657562133 -43405584#3 -43405584#2 -43405584#1 -43405584#0 437157171#0 437157171#1 437157171#2 437157170#0 437157170#1 437157168 437157173#0 437157173#1"/>
    </vehicle>
    <vehicle id="273" depart="679.77">
        <route edges="6601764#0 6601764#1 6601764#2 43405582#3"/>
    </vehicle>
    <vehicle id="274" depart="682.26">
        <route edges="437157175#0 437157175#1 93601149 44336478#6 44336478#7 437157171#0 437157171#1 437157171#2 437157170#0 437157170#1 106343219#0"/>
    </vehicle>
    <vehicle id="277" depart="689.73">
        <route edges="554230311#1 554230311#2 554230311#3 554230311#4 -657562143 -657562133 -43405584#3 -43405584#2 -43405584#1 -43405584#0 437157171#0"/>
    </vehicle>
    <vehicle id="282" depart="702.18">
        <route edges="554230311#1 554230311#2 554230311#3 554230311#4 -657562143 -657562133 -43405584#3 -43405584#2 -43405584#1 -43405584#0 437157171#0 437157171#1 437157171#2 437157170#0 437157170#1 437157168 4638449#0 4638449#1"/>
    </vehicle>
    <vehicle id="293" depart="729.57">
        <route edges="43405583#1 107088310#4 14567301#3 -657562133 -43405584#3 -43405584#2 -43405584#1 -43405584#0 437157171#0 437157171#1"/>
    </vehicle>
    <vehicle id="294" depart="732.06">
        <route edges="164369277#3 437157172#0 437157172#1 437157172#2 437157172#3 43405584#0 43405584#1 43405584#2 43405584#3 -43405584#3 -43405584#2"/>
    </vehicle>
    <vehicle id="295" depart="734.55">
        <route edges="554230311#1 554230311#2 554230311#3 554230311#4 -657562143 -657562133 657562135#0 107088310#6 107088310#7"/>
    </vehicle>
    <vehicle id="296" depart="737.04">
        <route edges="133150561#1 656511223#1 657562135#0 107088310#6 107088310#7 44336478#5 44336478#6 44336478#7"/>
    </vehicle>
    <vehicle id="297" depart="739.53">
        <route edges="164369271#1 164369277#0 164369277#1 164369277#2 164369277#3 437157172#0 437157172#1 437157172#2 437157172#3 43405584#0 43405584#1 43405584#2 43405584#3 657562133"/>
    </vehicle>
    <vehicle id="298" depart="742.02">
        <route edges="437157174#1 4638449#0 4638449#1 136124311#3 136124311#4"/>
    </vehicle>
    <vehicle id="303" depart="754.47">